<?xml version="1.0" encoding="UTF-8"?>

<!-- generated on 2022-05-30 20:03:32 by Eclipse SUMO netedit Version 1.13.0
-->
<additionals>
    <rerouter id="rerouter_0" edges="E0">
        <interval end="1e9">
           <destProbReroute id="E1"/>
        </interval>
    </rerouter>
    <rerouter id="rerouter_1" edges="E1">
        <interval end="1e9">
           <destProbReroute id="E0"/>
        </interval>
    </rerouter>
</additionals>
