<?xml version="1.0" encoding="UTF-8"?>

<!-- generated on 2022-05-30 20:14:03 by Eclipse SUMO netedit Version 1.13.0
-->

<routes xmlns:xsi="http://www.w3.org/2001/XMLSchema-instance" xsi:noNamespaceSchemaLocation="http://sumo.dlr.de/xsd/routes_file.xsd">
    <!-- Vehicles, persons and containers (sorted by depart) -->
    <trip id="t_0" depart="0.00" from="E0" to="E0"/>
    <trip id="t_1" depart="0.00" from="E0" to="E0"/>
    <trip id="t_2" depart="0.00" from="E0" to="E0"/>
    <trip id="t_3" depart="0.00" from="E0" to="E0"/>
    <trip id="t_4" depart="0.00" from="E0" to="E0"/>
    <trip id="t_5" depart="0.00" from="E0" to="E0"/>
    <trip id="t_6" depart="0.00" from="E0" to="E0"/>
</routes>
