<?xml version="1.0" encoding="UTF-8"?>

<!-- generated on 2022-05-30 20:03:37 by Eclipse SUMO netedit Version 1.13.0
<configuration xmlns:xsi="http://www.w3.org/2001/XMLSchema-instance" xsi:noNamespaceSchemaLocation="http://sumo.dlr.de/xsd/netconvertConfiguration.xsd">

    <output>
        <output-file value="/home/kenniston/mestrado-ita/materiais/SBSeg/projetos/omnetpp6-workspace/smart/simulations/teste/teste.net.xml"/>
    </output>

    <processing>
        <offset.disable-normalization value="true"/>
    </processing>

    <junctions>
        <no-turnarounds value="true"/>
    </junctions>

    <netedit>
        <additional-files value="/home/kenniston/mestrado-ita/materiais/SBSeg/projetos/omnetpp6-workspace/smart/simulations/teste/teste.add.xml"/>
        <route-files value="/home/kenniston/mestrado-ita/materiais/SBSeg/projetos/omnetpp6-workspace/smart/simulations/teste/teste.rou.xml"/>
    </netedit>

    <report>
        <aggregate-warnings value="5"/>
    </report>

</configuration>
-->

<net version="1.9" junctionCornerDetail="5" limitTurnSpeed="5.50" xmlns:xsi="http://www.w3.org/2001/XMLSchema-instance" xsi:noNamespaceSchemaLocation="http://sumo.dlr.de/xsd/net_file.xsd">

    <location netOffset="0.00,0.00" convBoundary="-33.13,13.52,135.31,85.66" origBoundary="10000000000.00,10000000000.00,-10000000000.00,-10000000000.00" projParameter="!"/>

    <edge id=":J0_0" function="internal">
        <lane id=":J0_0_0" index="0" speed="3.91" length="2.53" shape="-31.05,81.69 -30.94,82.37 -30.64,82.86 -30.14,83.16 -29.46,83.26"/>
    </edge>
    <edge id=":J1_0" function="internal">
        <lane id=":J1_0_0" index="0" speed="13.89" length="0.54" shape="72.63,84.05 72.79,84.05 72.90,84.04 73.00,84.02 73.15,83.97"/>
    </edge>
    <edge id=":J10_0" function="internal">
        <lane id=":J10_0_0" index="0" speed="3.90" length="2.65" shape="-8.58,59.24 -8.66,59.97 -8.96,60.48 -9.46,60.79 -10.19,60.89"/>
    </edge>
    <edge id=":J11_0" function="internal">
        <lane id=":J11_0_0" index="0" speed="3.90" length="2.63" shape="-29.85,60.77 -30.57,60.87 -31.07,61.18 -31.37,61.69 -31.46,62.41"/>
    </edge>
    <edge id=":J3_0" function="internal">
        <lane id=":J3_0_0" index="0" speed="3.92" length="2.28" shape="132.23,63.97 132.78,63.70 133.14,63.31 133.31,62.81 133.30,62.20"/>
    </edge>
    <edge id=":J4_0" function="internal">
        <lane id=":J4_0_0" index="0" speed="3.90" length="2.70" shape="125.95,17.15 125.73,16.44 125.33,15.98 124.76,15.79 124.01,15.85"/>
    </edge>
    <edge id=":J5_0" function="internal">
        <lane id=":J5_0_0" index="0" speed="4.01" length="4.12" shape="77.71,26.52 76.52,26.95 76.01,27.56 76.18,28.34 77.02,29.28"/>
    </edge>
    <edge id=":J6_0" function="internal">
        <lane id=":J6_0_0" index="0" speed="3.92" length="3.32" shape="97.98,47.56 98.61,48.29 98.77,48.97 98.47,49.60 97.69,50.17"/>
    </edge>
    <edge id=":J7_0" function="internal">
        <lane id=":J7_0_0" index="0" speed="3.96" length="1.94" shape="72.42,63.97 71.94,64.16 71.49,64.19 71.04,64.07 70.62,63.79"/>
    </edge>
    <edge id=":J8_0" function="internal">
        <lane id=":J8_0_0" index="0" speed="4.28" length="1.19" shape="33.98,32.61 33.71,32.39 33.49,32.28 33.25,32.23 32.90,32.23"/>
    </edge>
    <edge id=":J9_0" function="internal">
        <lane id=":J9_0_0" index="0" speed="3.90" length="2.59" shape="-7.74,33.22 -8.44,33.33 -8.94,33.65 -9.22,34.16 -9.30,34.86"/>
    </edge>

    <edge id="E0" from="J0" to="J1" priority="-1">
        <lane id="E0_0" index="0" speed="13.89" length="102.09" shape="-29.46,83.26 72.63,84.05"/>
    </edge>
    <edge id="E1" from="J1" to="J3" priority="-1">
        <lane id="E1_0" index="0" speed="13.89" length="62.37" shape="73.15,83.97 132.23,63.97"/>
    </edge>
    <edge id="E10" from="J11" to="J0" priority="-1">
        <lane id="E10_0" index="0" speed="13.89" length="19.29" shape="-31.46,62.41 -31.05,81.69"/>
    </edge>
    <edge id="E2" from="J3" to="J4" priority="-1">
        <lane id="E2_0" index="0" speed="13.89" length="45.64" shape="133.30,62.20 125.95,17.15"/>
    </edge>
    <edge id="E3" from="J4" to="J5" priority="-1">
        <lane id="E3_0" index="0" speed="13.89" length="47.51" shape="124.01,15.85 77.71,26.52"/>
    </edge>
    <edge id="E4" from="J5" to="J6" priority="-1">
        <lane id="E4_0" index="0" speed="13.89" length="27.81" shape="77.02,29.28 97.98,47.56"/>
    </edge>
    <edge id="E5" from="J6" to="J7" priority="-1">
        <lane id="E5_0" index="0" speed="13.89" length="28.79" shape="97.69,50.17 72.42,63.97"/>
    </edge>
    <edge id="E6" from="J7" to="J8" priority="-1">
        <lane id="E6_0" index="0" speed="13.89" length="48.11" shape="70.62,63.79 33.98,32.61"/>
    </edge>
    <edge id="E7" from="J8" to="J9" priority="-1">
        <lane id="E7_0" index="0" speed="13.89" length="40.66" shape="32.90,32.23 -7.74,33.22"/>
    </edge>
    <edge id="E8" from="J9" to="J10" priority="-1">
        <lane id="E8_0" index="0" speed="13.89" length="24.39" shape="-9.30,34.86 -8.58,59.24"/>
    </edge>
    <edge id="E9" from="J10" to="J11" priority="-1">
        <lane id="E9_0" index="0" speed="13.89" length="19.66" shape="-10.19,60.89 -29.85,60.77"/>
    </edge>

    <junction id="J0" type="priority" x="-32.58" y="84.84" incLanes="E10_0" intLanes=":J0_0_0" shape="-29.47,84.86 -29.45,81.66 -32.65,81.73 -32.27,83.46 -31.82,84.07 -31.21,84.50 -30.43,84.77">
        <request index="0" response="0" foes="0" cont="0"/>
    </junction>
    <junction id="J1" type="priority" x="73.16" y="85.66" incLanes="E0_0" intLanes=":J1_0_0" shape="73.67,85.48 72.64,82.45 72.62,85.65 73.01,85.65 73.15,85.63 73.29,85.60 73.45,85.55">
        <request index="0" response="0" foes="0" cont="0"/>
    </junction>
    <junction id="J10" type="priority" x="-10.18" y="59.29" incLanes="E8_0" intLanes=":J10_0_0" shape="-6.98,59.19 -10.18,59.29 -10.20,62.49 -8.37,62.13 -7.73,61.68 -7.29,61.03 -7.04,60.21">
        <request index="0" response="0" foes="0" cont="0"/>
    </junction>
    <junction id="J11" type="priority" x="-33.13" y="59.15" incLanes="E9_0" intLanes=":J11_0_0" shape="-33.06,62.44 -29.86,62.37 -29.84,59.17 -31.66,59.53 -32.29,59.98 -32.73,60.62 -32.99,61.44">
        <request index="0" response="0" foes="0" cont="0"/>
    </junction>
    <junction id="J3" type="priority" x="135.31" y="64.62" incLanes="E1_0" intLanes=":J3_0_0" shape="134.88,61.94 131.72,62.46 132.75,65.49 134.12,64.71 134.56,64.17 134.83,63.52 134.94,62.78">
        <request index="0" response="0" foes="0" cont="0"/>
    </junction>
    <junction id="J4" type="priority" x="126.98" y="13.52" incLanes="E2_0" intLanes=":J4_0_0" shape="124.37,17.41 127.53,16.89 126.86,15.11 126.29,14.56 125.56,14.24 124.69,14.15 123.65,14.29">
        <request index="0" response="0" foes="0" cont="0"/>
    </junction>
    <junction id="J5" type="priority" x="71.24" y="26.37" incLanes="E3_0" intLanes=":J5_0_0" shape="75.97,30.49 78.07,28.08 77.35,24.96 74.48,26.20 73.95,27.04 74.02,28.04 74.69,29.19">
        <request index="0" response="0" foes="0" cont="0"/>
    </junction>
    <junction id="J6" type="priority" x="96.93" y="48.77" incLanes="E4_0" intLanes=":J6_0_0" shape="99.03,46.36 96.93,48.77 98.46,51.58 100.31,50.02 100.62,49.17 100.50,48.28 99.98,47.34">
        <request index="0" response="0" foes="0" cont="0"/>
    </junction>
    <junction id="J7" type="priority" x="71.65" y="62.57" incLanes="E5_0" intLanes=":J7_0_0" shape="73.19,65.38 71.65,62.57 69.58,65.01 70.72,65.68 71.32,65.81 71.93,65.80 72.55,65.66">
        <request index="0" response="0" foes="0" cont="0"/>
    </junction>
    <junction id="J8" type="priority" x="34.08" y="30.60" incLanes="E6_0" intLanes=":J8_0_0" shape="32.94,33.83 35.01,31.39 34.32,30.86 34.04,30.72 33.74,30.65 33.36,30.63 32.86,30.63">
        <request index="0" response="0" foes="0" cont="0"/>
    </junction>
    <junction id="J9" type="priority" x="-11.00" y="31.69" incLanes="E7_0" intLanes=":J9_0_0" shape="-10.90,34.91 -7.70,34.82 -7.78,31.62 -9.56,32.02 -10.17,32.48 -10.60,33.11 -10.84,33.93">
        <request index="0" response="0" foes="0" cont="0"/>
    </junction>

    <connection from="E0" to="E1" fromLane="0" toLane="0" via=":J1_0_0" dir="s" state="M"/>
    <connection from="E1" to="E2" fromLane="0" toLane="0" via=":J3_0_0" dir="r" state="M"/>
    <connection from="E10" to="E0" fromLane="0" toLane="0" via=":J0_0_0" dir="r" state="M"/>
    <connection from="E2" to="E3" fromLane="0" toLane="0" via=":J4_0_0" dir="r" state="M"/>
    <connection from="E3" to="E4" fromLane="0" toLane="0" via=":J5_0_0" dir="r" state="M"/>
    <connection from="E4" to="E5" fromLane="0" toLane="0" via=":J6_0_0" dir="l" state="M"/>
    <connection from="E5" to="E6" fromLane="0" toLane="0" via=":J7_0_0" dir="l" state="M"/>
    <connection from="E6" to="E7" fromLane="0" toLane="0" via=":J8_0_0" dir="s" state="M"/>
    <connection from="E7" to="E8" fromLane="0" toLane="0" via=":J9_0_0" dir="r" state="M"/>
    <connection from="E8" to="E9" fromLane="0" toLane="0" via=":J10_0_0" dir="l" state="M"/>
    <connection from="E9" to="E10" fromLane="0" toLane="0" via=":J11_0_0" dir="r" state="M"/>

    <connection from=":J0_0" to="E0" fromLane="0" toLane="0" dir="r" state="M"/>
    <connection from=":J1_0" to="E1" fromLane="0" toLane="0" dir="s" state="M"/>
    <connection from=":J10_0" to="E9" fromLane="0" toLane="0" dir="l" state="M"/>
    <connection from=":J11_0" to="E10" fromLane="0" toLane="0" dir="r" state="M"/>
    <connection from=":J3_0" to="E2" fromLane="0" toLane="0" dir="r" state="M"/>
    <connection from=":J4_0" to="E3" fromLane="0" toLane="0" dir="r" state="M"/>
    <connection from=":J5_0" to="E4" fromLane="0" toLane="0" dir="r" state="M"/>
    <connection from=":J6_0" to="E5" fromLane="0" toLane="0" dir="l" state="M"/>
    <connection from=":J7_0" to="E6" fromLane="0" toLane="0" dir="l" state="M"/>
    <connection from=":J8_0" to="E7" fromLane="0" toLane="0" dir="s" state="M"/>
    <connection from=":J9_0" to="E8" fromLane="0" toLane="0" dir="r" state="M"/>

</net>
