<?xml version="1.0" encoding="UTF-8"?>

<!-- generated on 2022-07-12 20:59:25 by Eclipse SUMO netedit Version 1.13.0
<configuration xmlns:xsi="http://www.w3.org/2001/XMLSchema-instance" xsi:noNamespaceSchemaLocation="http://sumo.dlr.de/xsd/netconvertConfiguration.xsd">

    <input>
        <sumo-net-file value="/home/kenniston/2022-07-12-17-03-00/road.net.xml"/>
    </input>

    <output>
        <output-file value="/home/kenniston/2022-07-12-17-03-00/road.net.xml"/>
    </output>

    <processing>
        <geometry.min-radius.fix.railways value="false"/>
        <geometry.max-grade.fix value="false"/>
        <offset.disable-normalization value="true"/>
        <lefthand value="false"/>
    </processing>

    <junctions>
        <no-turnarounds value="true"/>
        <junctions.corner-detail value="5"/>
        <junctions.limit-turn-speed value="5.5"/>
        <rectangular-lane-cut value="false"/>
    </junctions>

    <pedestrian>
        <walkingareas value="false"/>
    </pedestrian>

    <netedit>
        <additional-files value="/home/kenniston/2022-07-12-17-03-00/road.add.xml"/>
        <route-files value="/home/kenniston/2022-07-12-17-03-00/road.rou.xml"/>
    </netedit>

    <report>
        <aggregate-warnings value="5"/>
    </report>

</configuration>
-->

<additional xmlns:xsi="http://www.w3.org/2001/XMLSchema-instance" xsi:noNamespaceSchemaLocation="http://sumo.dlr.de/xsd/additional_file.xsd">
    <tlLogic id="J4" type="static" programID="0" offset="0">
        <phase duration="25" state="GGGGGG"/>
        <phase duration="5" state="yyyyyy"/>
        <phase duration="20" state="rrrrrr"/>
        <phase duration="25" state="GGGGGG"/>
        <phase duration="5" state="yyyyyy"/>
        <phase duration="20" state="rrrrrr"/>
    </tlLogic>
    <tlLogic id="J2" type="static" programID="0" offset="0">
        <phase duration="25" state="GGGGGG"/>
        <phase duration="5" state="yyyyyy"/>
        <phase duration="20" state="rrrrrr"/>
        <phase duration="25" state="GGGGGG"/>
        <phase duration="5" state="yyyyyy"/>
        <phase duration="20" state="rrrrrr"/>
    </tlLogic>
</additional>
