<?xml version="1.0" encoding="UTF-8"?>

<!-- generated on 2022-07-12 22:13:58 by Eclipse SUMO netedit Version 1.13.0
-->

<additional xmlns:xsi="http://www.w3.org/2001/XMLSchema-instance" xsi:noNamespaceSchemaLocation="http://sumo.dlr.de/xsd/additional_file.xsd">
    <!-- Shapes -->
    <poly id="po_0" type="building" color="white" fill="0" layer="0.00" shape="-136,71 -136,69 -138,71 -138,69 -136,71"/>
	<poly id="po_1" type="building" color="white" fill="0" layer="0.00" shape="200,71 200,69 202,71 202,69 200,71"/>
</additional>
