<?xml version="1.0" encoding="UTF-8"?>

<!-- generated on 2022-07-12 21:00:46 by Eclipse SUMO netedit Version 1.13.0
<configuration xmlns:xsi="http://www.w3.org/2001/XMLSchema-instance" xsi:noNamespaceSchemaLocation="http://sumo.dlr.de/xsd/netconvertConfiguration.xsd">

    <input>
        <sumo-net-file value="/home/kenniston/2022-07-12-17-03-00/road.net.xml"/>
    </input>

    <output>
        <output-file value="/home/kenniston/2022-07-12-17-03-00/road.net.xml"/>
    </output>

    <processing>
        <geometry.min-radius.fix.railways value="false"/>
        <geometry.max-grade.fix value="false"/>
        <offset.disable-normalization value="true"/>
        <lefthand value="false"/>
    </processing>

    <junctions>
        <no-turnarounds value="true"/>
        <junctions.corner-detail value="5"/>
        <junctions.limit-turn-speed value="5.5"/>
        <rectangular-lane-cut value="false"/>
    </junctions>

    <pedestrian>
        <walkingareas value="false"/>
    </pedestrian>

    <netedit>
        <additional-files value="/home/kenniston/2022-07-12-17-03-00/road.add.xml"/>
        <route-files value="/home/kenniston/2022-07-12-17-03-00/road.rou.xml"/>
    </netedit>

    <report>
        <aggregate-warnings value="5"/>
    </report>

</configuration>
-->

<net version="1.9" junctionCornerDetail="5" limitTurnSpeed="5.50" xmlns:xsi="http://www.w3.org/2001/XMLSchema-instance" xsi:noNamespaceSchemaLocation="http://sumo.dlr.de/xsd/net_file.xsd">

    <location netOffset="0.00,0.00" convBoundary="-250.00,0.00,250.00,100.00" origBoundary="-10000000000.00,-10000000000.00,10000000000.00,10000000000.00" projParameter="!"/>

    <edge id=":J1_0" function="internal">
        <lane id=":J1_0_0" index="0" speed="11.12" length="28.38" shape="-258.00,9.60 -256.90,1.90 -253.60,-3.60 -248.10,-6.90 -240.40,-8.00"/>
        <lane id=":J1_0_1" index="1" speed="10.10" length="23.22" shape="-254.80,9.60 -253.90,3.30 -251.20,-1.20 -246.70,-3.90 -240.40,-4.80"/>
        <lane id=":J1_0_2" index="2" speed="8.96" length="18.06" shape="-251.60,9.60 -250.90,4.70 -248.80,1.20 -245.30,-0.90 -240.40,-1.60"/>
    </edge>
    <edge id=":J1_3" function="internal">
        <lane id=":J1_3_0" index="0" speed="3.90" length="2.58" shape="-240.40,8.00 -241.10,8.10 -241.60,8.40 -241.90,8.90 -242.00,9.60"/>
        <lane id=":J1_3_1" index="1" speed="6.08" length="7.74" shape="-240.40,4.80 -242.50,5.10 -244.00,6.00 -244.90,7.50 -245.20,9.60"/>
        <lane id=":J1_3_2" index="2" speed="7.66" length="12.90" shape="-240.40,1.60 -243.90,2.10 -246.40,3.60 -247.90,6.10 -248.40,9.60"/>
    </edge>
    <edge id=":J2_0" function="internal">
        <lane id=":J2_0_0" index="0" speed="3.90" length="2.58" shape="242.00,9.60 241.90,8.90 241.60,8.40 241.10,8.10 240.40,8.00"/>
        <lane id=":J2_0_1" index="1" speed="6.08" length="7.74" shape="245.20,9.60 244.90,7.50 244.00,6.00 242.50,5.10 240.40,4.80"/>
        <lane id=":J2_0_2" index="2" speed="7.66" length="12.90" shape="248.40,9.60 247.90,6.10 246.40,3.60 243.90,2.10 240.40,1.60"/>
    </edge>
    <edge id=":J2_3" function="internal">
        <lane id=":J2_3_0" index="0" speed="11.12" length="28.38" shape="240.40,-8.00 248.10,-6.90 253.60,-3.60 256.90,1.90 258.00,9.60"/>
        <lane id=":J2_3_1" index="1" speed="10.10" length="23.22" shape="240.40,-4.80 246.70,-3.90 251.20,-1.20 253.90,3.30 254.80,9.60"/>
        <lane id=":J2_3_2" index="2" speed="8.96" length="18.06" shape="240.40,-1.60 245.30,-0.90 248.80,1.20 250.90,4.70 251.60,9.60"/>
    </edge>
    <edge id=":J3_0" function="internal">
        <lane id=":J3_0_0" index="0" speed="11.12" length="28.38" shape="258.00,90.40 256.90,98.10 253.60,103.60 248.10,106.90 240.40,108.00"/>
        <lane id=":J3_0_1" index="1" speed="10.10" length="23.22" shape="254.80,90.40 253.90,96.70 251.20,101.20 246.70,103.90 240.40,104.80"/>
        <lane id=":J3_0_2" index="2" speed="8.96" length="18.06" shape="251.60,90.40 250.90,95.30 248.80,98.80 245.30,100.90 240.40,101.60"/>
    </edge>
    <edge id=":J3_3" function="internal">
        <lane id=":J3_3_0" index="0" speed="3.90" length="2.58" shape="240.40,92.00 241.10,91.90 241.60,91.60 241.90,91.10 242.00,90.40"/>
        <lane id=":J3_3_1" index="1" speed="6.08" length="7.74" shape="240.40,95.20 242.50,94.90 244.00,94.00 244.90,92.50 245.20,90.40"/>
        <lane id=":J3_3_2" index="2" speed="7.66" length="12.90" shape="240.40,98.40 243.90,97.90 246.40,96.40 247.90,93.90 248.40,90.40"/>
    </edge>
    <edge id=":J4_0" function="internal">
        <lane id=":J4_0_0" index="0" speed="11.12" length="28.38" shape="-240.40,108.00 -248.10,106.90 -253.60,103.60 -256.90,98.10 -258.00,90.40"/>
        <lane id=":J4_0_1" index="1" speed="10.10" length="23.22" shape="-240.40,104.80 -246.70,103.90 -251.20,101.20 -253.90,96.70 -254.80,90.40"/>
        <lane id=":J4_0_2" index="2" speed="8.96" length="18.06" shape="-240.40,101.60 -245.30,100.90 -248.80,98.80 -250.90,95.30 -251.60,90.40"/>
    </edge>
    <edge id=":J4_3" function="internal">
        <lane id=":J4_3_0" index="0" speed="3.90" length="2.58" shape="-242.00,90.40 -241.90,91.10 -241.60,91.60 -241.10,91.90 -240.40,92.00"/>
        <lane id=":J4_3_1" index="1" speed="6.08" length="7.74" shape="-245.20,90.40 -244.90,92.50 -244.00,94.00 -242.50,94.90 -240.40,95.20"/>
        <lane id=":J4_3_2" index="2" speed="7.66" length="12.90" shape="-248.40,90.40 -247.90,93.90 -246.40,96.40 -243.90,97.90 -240.40,98.40"/>
    </edge>

    <edge id="r1" from="J1" to="J2" priority="-1" length="500.00">
        <lane id="r1_0" index="0" speed="13.89" length="500.00" shape="-240.40,-8.00 240.40,-8.00"/>
        <lane id="r1_1" index="1" speed="13.89" length="500.00" shape="-240.40,-4.80 240.40,-4.80"/>
        <lane id="r1_2" index="2" speed="13.89" length="500.00" shape="-240.40,-1.60 240.40,-1.60"/>
    </edge>
    <edge id="r2" from="J2" to="J1" priority="-1" length="500.00">
        <lane id="r2_0" index="0" speed="13.89" length="500.00" shape="240.40,8.00 -240.40,8.00"/>
        <lane id="r2_1" index="1" speed="13.89" length="500.00" shape="240.40,4.80 -240.40,4.80"/>
        <lane id="r2_2" index="2" speed="13.89" length="500.00" shape="240.40,1.60 -240.40,1.60"/>
    </edge>
    <edge id="r3" from="J3" to="J2" priority="-1">
        <lane id="r3_0" index="0" speed="13.89" length="80.80" shape="242.00,90.40 242.00,9.60"/>
        <lane id="r3_1" index="1" speed="13.89" length="80.80" shape="245.20,90.40 245.20,9.60"/>
        <lane id="r3_2" index="2" speed="13.89" length="80.80" shape="248.40,90.40 248.40,9.60"/>
    </edge>
    <edge id="r4" from="J2" to="J3" priority="-1">
        <lane id="r4_0" index="0" speed="13.89" length="80.80" shape="258.00,9.60 258.00,90.40"/>
        <lane id="r4_1" index="1" speed="13.89" length="80.80" shape="254.80,9.60 254.80,90.40"/>
        <lane id="r4_2" index="2" speed="13.89" length="80.80" shape="251.60,9.60 251.60,90.40"/>
    </edge>
    <edge id="r5" from="J4" to="J3" priority="-1" length="500.00">
        <lane id="r5_0" index="0" speed="13.89" length="500.00" shape="-240.40,92.00 240.40,92.00"/>
        <lane id="r5_1" index="1" speed="13.89" length="500.00" shape="-240.40,95.20 240.40,95.20"/>
        <lane id="r5_2" index="2" speed="13.89" length="500.00" shape="-240.40,98.40 240.40,98.40"/>
    </edge>
    <edge id="r6" from="J3" to="J4" priority="-1" length="500.00">
        <lane id="r6_0" index="0" speed="13.89" length="500.00" shape="240.40,108.00 -240.40,108.00"/>
        <lane id="r6_1" index="1" speed="13.89" length="500.00" shape="240.40,104.80 -240.40,104.80"/>
        <lane id="r6_2" index="2" speed="13.89" length="500.00" shape="240.40,101.60 -240.40,101.60"/>
    </edge>
    <edge id="r7" from="J1" to="J4" priority="-1">
        <lane id="r7_0" index="0" speed="13.89" length="80.80" shape="-242.00,9.60 -242.00,90.40"/>
        <lane id="r7_1" index="1" speed="13.89" length="80.80" shape="-245.20,9.60 -245.20,90.40"/>
        <lane id="r7_2" index="2" speed="13.89" length="80.80" shape="-248.40,9.60 -248.40,90.40"/>
    </edge>
    <edge id="r8" from="J4" to="J1" priority="-1">
        <lane id="r8_0" index="0" speed="13.89" length="80.80" shape="-258.00,90.40 -258.00,9.60"/>
        <lane id="r8_1" index="1" speed="13.89" length="80.80" shape="-254.80,90.40 -254.80,9.60"/>
        <lane id="r8_2" index="2" speed="13.89" length="80.80" shape="-251.60,90.40 -251.60,9.60"/>
    </edge>

    <tlLogic id="J2" type="static" programID="0" offset="0">
        <phase duration="25" state="GGGGGG"/>
        <phase duration="5"  state="yyyyyy"/>
        <phase duration="20" state="rrrrrr"/>
        <phase duration="25" state="GGGGGG"/>
        <phase duration="5"  state="yyyyyy"/>
        <phase duration="20" state="rrrrrr"/>
    </tlLogic>
    <tlLogic id="J4" type="static" programID="0" offset="0">
        <phase duration="25" state="GGGGGG"/>
        <phase duration="5"  state="yyyyyy"/>
        <phase duration="20" state="rrrrrr"/>
        <phase duration="25" state="GGGGGG"/>
        <phase duration="5"  state="yyyyyy"/>
        <phase duration="20" state="rrrrrr"/>
    </tlLogic>

    <junction id="J1" type="priority" x="-250.00" y="0.00" incLanes="r8_0 r8_1 r8_2 r2_0 r2_1 r2_2" intLanes=":J1_0_0 :J1_0_1 :J1_0_2 :J1_3_0 :J1_3_1 :J1_3_2" shape="-259.60,9.60 -240.40,9.60 -240.40,-9.60 -246.27,-9.07 -251.07,-7.47 -254.80,-4.80 -257.47,-1.07 -259.07,3.73">
        <request index="0" response="000000" foes="000000" cont="0"/>
        <request index="1" response="000000" foes="000000" cont="0"/>
        <request index="2" response="000000" foes="000000" cont="0"/>
        <request index="3" response="000000" foes="000000" cont="0"/>
        <request index="4" response="000000" foes="000000" cont="0"/>
        <request index="5" response="000000" foes="000000" cont="0"/>
    </junction>
    <junction id="J2" type="traffic_light" x="250.00" y="0.00" incLanes="r3_0 r3_1 r3_2 r1_0 r1_1 r1_2" intLanes=":J2_0_0 :J2_0_1 :J2_0_2 :J2_3_0 :J2_3_1 :J2_3_2" shape="240.40,9.60 259.60,9.60 259.07,3.73 257.47,-1.07 254.80,-4.80 251.07,-7.47 246.27,-9.07 240.40,-9.60">
        <request index="0" response="000000" foes="000000" cont="0"/>
        <request index="1" response="000000" foes="000000" cont="0"/>
        <request index="2" response="000000" foes="000000" cont="0"/>
        <request index="3" response="000000" foes="000000" cont="0"/>
        <request index="4" response="000000" foes="000000" cont="0"/>
        <request index="5" response="000000" foes="000000" cont="0"/>
    </junction>
    <junction id="J3" type="priority" x="250.00" y="100.00" incLanes="r4_0 r4_1 r4_2 r5_0 r5_1 r5_2" intLanes=":J3_0_0 :J3_0_1 :J3_0_2 :J3_3_0 :J3_3_1 :J3_3_2" shape="259.60,90.40 240.40,90.40 240.40,109.60 246.27,109.07 251.07,107.47 254.80,104.80 257.47,101.07 259.07,96.27">
        <request index="0" response="000000" foes="000000" cont="0"/>
        <request index="1" response="000000" foes="000000" cont="0"/>
        <request index="2" response="000000" foes="000000" cont="0"/>
        <request index="3" response="000000" foes="000000" cont="0"/>
        <request index="4" response="000000" foes="000000" cont="0"/>
        <request index="5" response="000000" foes="000000" cont="0"/>
    </junction>
    <junction id="J4" type="traffic_light" x="-250.00" y="100.00" incLanes="r6_0 r6_1 r6_2 r7_0 r7_1 r7_2" intLanes=":J4_0_0 :J4_0_1 :J4_0_2 :J4_3_0 :J4_3_1 :J4_3_2" shape="-240.40,109.60 -240.40,90.40 -259.60,90.40 -259.07,96.27 -257.47,101.07 -254.80,104.80 -251.07,107.47 -246.27,109.07">
        <request index="0" response="000000" foes="000000" cont="0"/>
        <request index="1" response="000000" foes="000000" cont="0"/>
        <request index="2" response="000000" foes="000000" cont="0"/>
        <request index="3" response="000000" foes="000000" cont="0"/>
        <request index="4" response="000000" foes="000000" cont="0"/>
        <request index="5" response="000000" foes="000000" cont="0"/>
    </junction>

    <connection from="r1" to="r4" fromLane="0" toLane="0" via=":J2_3_0" tl="J2" linkIndex="3" dir="l" state="O"/>
    <connection from="r1" to="r4" fromLane="1" toLane="1" via=":J2_3_1" tl="J2" linkIndex="4" dir="l" state="O"/>
    <connection from="r1" to="r4" fromLane="2" toLane="2" via=":J2_3_2" tl="J2" linkIndex="5" dir="l" state="O"/>
    <connection from="r2" to="r7" fromLane="0" toLane="0" via=":J1_3_0" dir="r" state="M"/>
    <connection from="r2" to="r7" fromLane="1" toLane="1" via=":J1_3_1" dir="r" state="M"/>
    <connection from="r2" to="r7" fromLane="2" toLane="2" via=":J1_3_2" dir="r" state="M"/>
    <connection from="r3" to="r2" fromLane="0" toLane="0" via=":J2_0_0" tl="J2" linkIndex="0" dir="r" state="O"/>
    <connection from="r3" to="r2" fromLane="1" toLane="1" via=":J2_0_1" tl="J2" linkIndex="1" dir="r" state="O"/>
    <connection from="r3" to="r2" fromLane="2" toLane="2" via=":J2_0_2" tl="J2" linkIndex="2" dir="r" state="O"/>
    <connection from="r4" to="r6" fromLane="0" toLane="0" via=":J3_0_0" dir="l" state="M"/>
    <connection from="r4" to="r6" fromLane="1" toLane="1" via=":J3_0_1" dir="l" state="M"/>
    <connection from="r4" to="r6" fromLane="2" toLane="2" via=":J3_0_2" dir="l" state="M"/>
    <connection from="r5" to="r3" fromLane="0" toLane="0" via=":J3_3_0" dir="r" state="M"/>
    <connection from="r5" to="r3" fromLane="1" toLane="1" via=":J3_3_1" dir="r" state="M"/>
    <connection from="r5" to="r3" fromLane="2" toLane="2" via=":J3_3_2" dir="r" state="M"/>
    <connection from="r6" to="r8" fromLane="0" toLane="0" via=":J4_0_0" tl="J4" linkIndex="0" dir="l" state="O"/>
    <connection from="r6" to="r8" fromLane="1" toLane="1" via=":J4_0_1" tl="J4" linkIndex="1" dir="l" state="O"/>
    <connection from="r6" to="r8" fromLane="2" toLane="2" via=":J4_0_2" tl="J4" linkIndex="2" dir="l" state="O"/>
    <connection from="r7" to="r5" fromLane="0" toLane="0" via=":J4_3_0" tl="J4" linkIndex="3" dir="r" state="O"/>
    <connection from="r7" to="r5" fromLane="1" toLane="1" via=":J4_3_1" tl="J4" linkIndex="4" dir="r" state="O"/>
    <connection from="r7" to="r5" fromLane="2" toLane="2" via=":J4_3_2" tl="J4" linkIndex="5" dir="r" state="O"/>
    <connection from="r8" to="r1" fromLane="0" toLane="0" via=":J1_0_0" dir="l" state="M"/>
    <connection from="r8" to="r1" fromLane="1" toLane="1" via=":J1_0_1" dir="l" state="M"/>
    <connection from="r8" to="r1" fromLane="2" toLane="2" via=":J1_0_2" dir="l" state="M"/>

    <connection from=":J1_0" to="r1" fromLane="0" toLane="0" dir="l" state="M"/>
    <connection from=":J1_0" to="r1" fromLane="1" toLane="1" dir="l" state="M"/>
    <connection from=":J1_0" to="r1" fromLane="2" toLane="2" dir="l" state="M"/>
    <connection from=":J1_3" to="r7" fromLane="0" toLane="0" dir="r" state="M"/>
    <connection from=":J1_3" to="r7" fromLane="1" toLane="1" dir="r" state="M"/>
    <connection from=":J1_3" to="r7" fromLane="2" toLane="2" dir="r" state="M"/>
    <connection from=":J2_0" to="r2" fromLane="0" toLane="0" dir="r" state="M"/>
    <connection from=":J2_0" to="r2" fromLane="1" toLane="1" dir="r" state="M"/>
    <connection from=":J2_0" to="r2" fromLane="2" toLane="2" dir="r" state="M"/>
    <connection from=":J2_3" to="r4" fromLane="0" toLane="0" dir="l" state="M"/>
    <connection from=":J2_3" to="r4" fromLane="1" toLane="1" dir="l" state="M"/>
    <connection from=":J2_3" to="r4" fromLane="2" toLane="2" dir="l" state="M"/>
    <connection from=":J3_0" to="r6" fromLane="0" toLane="0" dir="l" state="M"/>
    <connection from=":J3_0" to="r6" fromLane="1" toLane="1" dir="l" state="M"/>
    <connection from=":J3_0" to="r6" fromLane="2" toLane="2" dir="l" state="M"/>
    <connection from=":J3_3" to="r3" fromLane="0" toLane="0" dir="r" state="M"/>
    <connection from=":J3_3" to="r3" fromLane="1" toLane="1" dir="r" state="M"/>
    <connection from=":J3_3" to="r3" fromLane="2" toLane="2" dir="r" state="M"/>
    <connection from=":J4_0" to="r8" fromLane="0" toLane="0" dir="l" state="M"/>
    <connection from=":J4_0" to="r8" fromLane="1" toLane="1" dir="l" state="M"/>
    <connection from=":J4_0" to="r8" fromLane="2" toLane="2" dir="l" state="M"/>
    <connection from=":J4_3" to="r5" fromLane="0" toLane="0" dir="r" state="M"/>
    <connection from=":J4_3" to="r5" fromLane="1" toLane="1" dir="r" state="M"/>
    <connection from=":J4_3" to="r5" fromLane="2" toLane="2" dir="r" state="M"/>

</net>
