<?xml version="1.0" encoding="UTF-8"?>

<!-- generated on 2022-07-12 19:59:57 by Eclipse SUMO netedit Version 1.13.0
-->

<routes xmlns:xsi="http://www.w3.org/2001/XMLSchema-instance" xsi:noNamespaceSchemaLocation="http://sumo.dlr.de/xsd/routes_file.xsd">
    <vType accel="1" decel="4" maxSpeed="7" id="car" length="5" />
    <!-- Routes -->
    <route id="r_0" edges="r7 r5 r3 r2" color="0,0,0,0"/>
    <route id="r_1" edges="r8 r1 r4 r6" color="0,0,0,0"/>
    <!-- Vehicles, persons and containers (sorted by depart) -->
    <!--flow id="f_0" begin="0.00" color="red" from="r7" to="r2" via="r5 r3" end="3600.00" vehsPerHour="1800.00"/-->
    <trip id="t_0" type="car" depart="0.00" from="r7" to="r2" color="yellow"/>
    <trip id="t_1" type="car" depart="0.00" from="r8" to="r6" color="0.5,0.5,0.5"/>

    <trip id="t_2" type="car" depart="1.00" from="r7" to="r2" color="red"/>
    <trip id="t_3" type="car" depart="1.00" from="r8" to="r6" color="0.5,0.5,0.5"/>

    <trip id="t_4" type="car" depart="2.00" from="r7" to="r2" color="green"/>
    <trip id="t_5" type="car" depart="2.00" from="r8" to="r6" color="0.5,0.5,0.5"/>
</routes>
