<?xml version="1.0" encoding="UTF-8"?>

<!-- generated on 2022-06-06 15:26:27 by Eclipse SUMO sumo Version 1.13.0
-->

<configuration xmlns:xsi="http://www.w3.org/2001/XMLSchema-instance" xsi:noNamespaceSchemaLocation="http://sumo.dlr.de/xsd/sumoConfiguration.xsd">

    <input>
        <net-file value="brasilia.net.xml"/>
        <route-files value="brasilia.rou.mid.xml"/>
        <additional-files value="brasilia.poly.xml"/>
    </input>

    <processing>
        <ignore-route-errors value="true"/>
    </processing>

    <routing>
        <device.rerouting.adaptation-steps value="18"/>
        <device.rerouting.adaptation-interval value="10"/>
    </routing>

    <report>
        <verbose value="true"/>
        <duration-log.statistics value="true"/>
        <no-step-log value="true"/>
    </report>

    <gui_only>
        <gui-settings-file value="brasilia.view.xml"/>
    </gui_only>

</configuration>
