<?xml version="1.0" encoding="UTF-8"?>

<!-- generated on 2022-06-06 16:11:04 by Eclipse SUMO netedit Version 1.13.0
-->

<additional xmlns:xsi="http://www.w3.org/2001/XMLSchema-instance" xsi:noNamespaceSchemaLocation="http://sumo.dlr.de/xsd/additional_file.xsd">
    <!-- Shapes -->
    <poly id="1030819476" type="building.yes" color="255,230,230" fill="1" layer="-1.00" shape="806.831600,1125.087044 810.402705,1117.527119 814.025533,1109.833552 852.613214,1125.748760 843.696460,1142.765500 806.831600,1125.087044"/>
    <poly id="1030819476#1" type="shop.mall" color="237,199,255" fill="1" layer="-1.00" shape="806.831600,1125.087044 810.402705,1117.527119 814.025533,1109.833552 852.613214,1125.748760 843.696460,1142.765500 806.831600,1125.087044"/>
    <poly id="1030819477" type="landuse.recreation_ground" color="194,194,130" fill="1" layer="-3.00" shape="793.135409,1109.574159 798.751582,1098.009096 816.041979,1105.319312 813.877484,1109.979628 810.402705,1117.527119 793.135409,1109.574159"/>
    <poly id="1030819479" type="leisure.garden" color="207,245,201" fill="1" layer="-2.00" shape="869.768129,1108.992476 870.974424,1112.420141 832.206571,1197.831677 827.067420,1208.249184 819.687048,1211.797865 760.980465,1183.406417 763.726665,1178.937283 809.645917,1200.010417 823.070926,1206.167821 827.821089,1196.298526 843.123040,1164.460590 856.466419,1136.681942 869.768129,1108.992476"/>
    <poly id="1030819481" type="building.yes" color="255,230,230" fill="1" layer="-1.00" shape="739.178300,1157.230681 743.593355,1147.166760 765.075803,1155.979680 757.344497,1167.341934 739.178300,1157.230681"/>
    <poly id="1030819481#1" type="shop.mall" color="237,199,255" fill="1" layer="-1.00" shape="739.178300,1157.230681 743.593355,1147.166760 765.075803,1155.979680 757.344497,1167.341934 739.178300,1157.230681"/>
    <poly id="1030819935" type="leisure.swimming_pool" color="207,245,201" fill="1" layer="-2.00" shape="818.787969,1124.420111 821.372208,1119.111465 842.775728,1129.930199 840.183688,1134.685153 818.787969,1124.420111"/>
    <poly id="1030819936" type="natural.water" color="181,209,209" fill="1" layer="-4.00" shape="793.277130,1105.174950 795.126792,1101.759597 803.139521,1104.282784 801.297820,1108.262907 793.277130,1105.174950"/>
    <poly id="1030819937" type="leisure.park" color="207,245,201" fill="1" layer="-2.00" shape="763.295054,1130.806658 774.106935,1103.706159 856.466419,1136.681942 843.123040,1164.460590 763.295054,1130.806658"/>
    <poly id="1043535784" type="landuse.grass" color="194,194,130" fill="1" layer="-3.00" shape="721.932486,1965.285875 728.447805,1965.770078 730.229703,1942.307993 723.703671,1941.823942 721.932486,1965.285875"/>
    <poly id="1043535785" type="landuse.grass" color="194,194,130" fill="1" layer="-3.00" shape="682.775371,1941.757875 666.506512,1966.675526 668.497441,1967.954471 707.644850,1965.664293 708.931394,1958.801158 704.468052,1953.270590 684.746107,1952.263477 685.511533,1941.896565 682.775371,1941.757875"/>
    <poly id="1043535788" type="natural.grassland" color="140,196,107" fill="1" layer="-4.00" shape="711.792350,1906.127331 714.688835,1923.741815 738.258515,1923.875078 734.395763,1964.035977 829.417263,1973.895513 870.246894,1974.560824 873.476787,1937.443623 876.082907,1906.283071 870.391254,1878.263208 868.795865,1871.573572 711.792350,1906.127331"/>
    <poly id="1043535789" type="natural.grassland" color="140,196,107" fill="1" layer="-4.00" shape="460.464168,1964.325609 465.099527,1968.369602 489.205269,1962.403757 581.110912,1972.596141 659.960124,1969.315196 679.793072,1937.845709 673.608846,1937.268223 669.886117,1918.845743 678.867740,1917.057863 678.394996,1914.705315 661.116133,1918.149598 660.491087,1914.879880 460.464168,1964.325609"/>
    <poly id="1043535792" type="natural.grassland" color="140,196,107" fill="1" layer="-4.00" shape="642.550651,1889.613200 680.004192,1873.645783 732.515562,1860.224172 760.660395,1854.799223 770.958239,1852.826620 783.793146,1849.799274 793.272350,1847.561289 794.960843,1847.160916 856.273567,1830.580157 849.721876,1790.222565 845.431283,1779.450596 837.437285,1774.468223 821.828944,1768.618427 809.780652,1757.457325 804.774727,1753.750901 798.662105,1752.164525 792.377670,1753.604341 770.631194,1750.443866 745.931108,1739.316963 729.928699,1770.954136 717.159978,1796.188074 669.493453,1859.738244 642.550651,1889.613200"/>
    <poly id="1043535803" type="landuse.grass" color="194,194,130" fill="1" layer="-3.00" shape="591.671935,1674.755908 602.161907,1679.581372 605.111586,1675.087260 599.422243,1670.814467 598.374169,1667.960520 591.671935,1674.755908"/>
    <poly id="1043535805" type="landuse.grass" color="194,194,130" fill="1" layer="-3.00" shape="544.729985,1641.247089 542.567245,1642.994326 592.330673,1665.187982 594.034511,1664.355440 544.729985,1641.247089"/>
    <poly id="1043535812" type="landuse.grass" color="194,194,130" fill="1" layer="-3.00" shape="836.337788,1694.148795 837.840354,1697.295387 846.484392,1697.428342 858.034671,1699.879552 872.453951,1710.375880 880.396584,1713.996602 893.974747,1709.696025 925.525431,1691.839746 921.444091,1686.026933 894.269284,1701.683854 891.682230,1702.994063 880.095606,1710.899535 870.313722,1701.545159 859.093971,1695.157284 848.442315,1692.560500 836.337788,1694.148795"/>
    <poly id="1043535817" type="landuse.grass" color="194,194,130" fill="1" layer="-3.00" shape="951.833457,1669.460726 949.249687,1671.003495 951.973743,1674.088561 968.429156,1663.965649 966.076245,1660.587374 951.833457,1669.460726"/>
    <poly id="1043535818" type="landuse.grass" color="194,194,130" fill="1" layer="-3.00" shape="976.778247,1653.824080 979.012457,1657.148646 989.507962,1650.188886 987.273750,1646.864320 976.778247,1653.824080"/>
    <poly id="1043535819" type="amenity.waste_transfer_station" color="237,199,199" fill="1" layer="-1.00" shape="968.429156,1663.965649 979.012457,1657.148646 976.778247,1653.824080 966.076245,1660.587374 968.429156,1663.965649"/>
    <poly id="1043535820" type="amenity.motorcycle_parking" color="237,199,199" fill="1" layer="-1.00" shape="941.827734,1658.680716 949.249687,1671.003495 951.833457,1669.460726 944.411503,1657.137948 941.827734,1658.680716"/>
    <poly id="1057047498" type="landuse.construction" color="194,194,130" fill="1" layer="-3.00" shape="586.093192,1383.633390 640.133368,1407.284046 655.781871,1371.852789 603.199394,1348.923752 586.093192,1383.633390"/>
    <poly id="1057047499" type="landuse.construction" color="194,194,130" fill="1" layer="-3.00" shape="532.828717,1175.189598 571.809964,1192.417781 586.508767,1159.602809 547.527400,1142.363586 532.828717,1175.189598"/>
    <poly id="1057047500" type="amenity.parking" color="184,184,179" fill="1" layer="-1.00" shape="1678.867872,865.681635 1702.219207,891.391679 1723.299434,872.485703 1699.937365,846.775831 1678.867872,865.681635"/>
    <poly id="1057047501" type="natural.grassland" color="140,196,107" fill="1" layer="-4.00" shape="894.839107,1979.530858 901.821328,1982.711002 964.296539,1985.441429 1003.839233,2001.298908 1008.287702,1965.449300 1052.772475,1981.237034 1053.228069,1942.818651 1058.743716,1935.519268 1058.711868,1933.260189 1049.054134,1933.484948 1046.793236,1839.281248 963.475450,1856.427451 887.021487,1870.641127 890.629484,1918.195359 885.436975,1975.066752 894.839107,1979.530858"/>
    <poly id="1057047502" type="building.yes" color="255,230,230" fill="1" layer="-1.00" shape="1003.839233,2001.298908 1053.355090,2006.593119 1052.772475,1981.237034 1008.287702,1965.449300 1003.839233,2001.298908"/>
    <poly id="1057047502#1" type="shop.florist" color="237,199,255" fill="1" layer="-1.00" shape="1003.839233,2001.298908 1053.355090,2006.593119 1052.772475,1981.237034 1008.287702,1965.449300 1003.839233,2001.298908"/>
    <poly id="125232972" type="leisure.park" color="207,245,201" fill="1" layer="-2.00" shape="1910.386518,1753.499475 1844.399014,1688.894433 1845.476032,1683.163895 1898.968866,1638.335540 1936.037261,1612.635252 1946.617763,1607.911177 1983.774503,1617.276803 2026.705309,1630.813974 2051.531155,1635.613279 2097.652557,1638.959388 2115.518049,1639.858576 2232.373861,1637.053167 2325.473007,1633.021724 2398.714336,1631.264805 2457.427858,1629.580485 2565.959858,1628.043146 2586.686227,1628.037484 2686.284253,1626.338157 2725.673002,1601.744367 2753.311408,1581.038696 2775.164414,1558.399119 2824.669692,1455.551729 2839.087348,1416.713192 2868.374324,1350.482536 2886.503331,1308.733615 2896.039337,1290.865207 2921.954002,1290.785582 2993.907052,1295.014911 3033.714632,1300.752460 3054.601351,1306.016357 3074.779511,1313.483402 3107.080847,1330.503363 3133.570799,1351.305267 3184.063215,1398.947689 3225.244955,1481.058832 3234.000480,1590.235670 3238.123762,1617.081517 3249.855622,1652.680401 3264.569861,1674.790284 3281.191349,1690.005761 3301.830066,1703.447359 3318.886350,1711.523487 3425.546476,1757.780908 3523.445069,1797.882106 3559.960150,1814.808509 3565.288565,1825.321783 3572.337490,1834.669745 3588.872474,1843.018946 3600.141493,1846.004485 3671.122903,1876.762633 3611.842720,2021.254407 3604.994607,2035.097474 3573.138486,2113.660536 3551.142943,2126.267779 3507.388706,2147.779323 3479.116026,2184.245468 3381.944573,2296.654513 3431.427403,2325.138048 3521.961765,2430.174093 3553.444600,2469.457765 3594.533381,2538.045886 3623.821794,2594.938846 3647.657657,2673.341991 3675.888431,2798.424901 3693.548251,2853.445005 3697.972678,2869.752996 3698.195950,2884.713976 3693.649562,2886.993835 3684.174178,2890.285206 3669.069763,2895.129691 3656.898800,2899.644510 3603.405518,2920.341729 3490.036011,2956.277106 3410.838808,2969.396987 3395.223002,2963.903239 3301.408438,2913.419530 3293.790461,2909.318621 3253.189572,2926.475893 3224.979847,2925.159251 2955.835062,2766.630518 2966.252343,2711.023896 2967.011469,2703.304040 2982.327658,2606.756447 3225.329108,2503.844726 3255.566919,2404.803228 3250.102846,2324.278424 3182.444397,2279.869949 3046.263288,2247.996964 3082.259386,2178.436731 2975.150254,2057.474238 2888.194679,2057.843304 2791.274171,2065.519627 2757.304988,2066.289048 2734.469516,2059.745374 2705.037045,2055.288887 2640.148714,2068.513974 2561.959837,2077.640733 2547.730128,2069.258172 2535.728327,2055.405613 2515.064103,2039.382940 2485.730996,2021.489286 2469.196458,2013.139325 2449.837463,2008.262981 2437.667818,2002.996851 2423.711357,1993.458431 2415.050462,1992.152214 2399.192874,2010.408828 2366.978378,2054.073248 2336.500466,2097.713018 2311.033227,2138.557062 2308.339399,2142.172806 2134.546751,1970.834685 2123.204976,1959.653071 2092.192439,1931.393254 2071.868834,1912.884367 2038.782217,1874.430495 2006.732778,1847.137817 1910.386518,1753.499475"/>
    <poly id="125238137" type="amenity.parking" color="184,184,179" fill="1" layer="-1.00" shape="2948.260123,1412.019058 2945.732644,1419.032980 2934.037224,1425.268697 2921.341324,1432.028107 2917.527725,1442.106248 2909.086909,1434.383959 2908.281992,1439.623386 2891.264617,1442.578447 2888.548994,1432.548615 2884.282716,1416.758952 2882.787115,1410.344840 2885.492532,1407.559548 2899.112600,1412.284240 2913.131241,1410.335342 2948.260123,1412.019058"/>
    <poly id="125249396" type="amenity.community_centre" color="237,199,199" fill="1" layer="-1.00" shape="2304.058075,2019.973975 2327.198646,2038.243464 2348.481943,2016.199581 2357.456586,2019.218200 2363.320612,2006.253534 2356.634720,2002.061669 2339.738877,1999.996963 2329.973758,2004.765042 2315.946824,2005.395542 2304.058075,2019.973975"/>
    <poly id="125249398" type="building.yes" color="255,230,230" fill="1" layer="-1.00" shape="2338.477514,1980.576027 2347.742943,1984.443401 2349.983097,1979.837208 2356.029415,1979.751624 2355.952450,1974.314282 2341.272119,1974.234095 2338.477514,1980.576027"/>
    <poly id="125249399" type="amenity.community_centre" color="237,199,199" fill="1" layer="-1.00" shape="2255.636823,2037.539362 2265.349956,2047.281912 2279.034387,2033.054689 2269.254265,2023.124796 2255.636823,2037.539362"/>
    <poly id="125249409" type="leisure.track" color="207,245,201" fill="1" layer="-2.00" shape="2393.864374,1647.682012 2400.982813,1628.662995 2459.696329,1626.978668 2568.228318,1625.441316 2588.954685,1625.435651 2688.552702,1623.736312 2679.548010,1648.098808 2648.459167,1648.539382 2621.099628,1648.074198 2580.247547,1647.346018 2497.547126,1647.465299 2444.463307,1648.427567 2424.204403,1648.127417 2393.864374,1647.682012"/>
    <poly id="125249409#1" type="sport.cycling" color="79,230,125" fill="1" layer="-2.00" shape="2393.864374,1647.682012 2400.982813,1628.662995 2459.696329,1626.978668 2568.228318,1625.441316 2588.954685,1625.435651 2688.552702,1623.736312 2679.548010,1648.098808 2648.459167,1648.539382 2621.099628,1648.074198 2580.247547,1647.346018 2497.547126,1647.465299 2444.463307,1648.427567 2424.204403,1648.127417 2393.864374,1647.682012"/>
    <poly id="125250021" type="natural.water" color="181,209,209" fill="1" layer="-4.00" shape="2299.821360,1921.389030 2311.158649,1934.520049 2329.294378,1946.159235 2339.486600,1946.568783 2354.131241,1947.158980 2372.380244,1952.405545 2383.141838,1959.707510 2391.572696,1969.002962 2398.719215,1971.648697 2408.961630,1969.543200 2418.327324,1961.557549 2426.860974,1950.847842 2431.868267,1941.749809 2440.229423,1918.858668 2458.009781,1915.239726 2482.699154,1919.453525 2485.280232,1915.451677 2471.254780,1911.640689 2458.957869,1909.499882 2437.760177,1911.826987 2423.305979,1895.151448 2413.382486,1891.758628 2402.759817,1894.268263 2396.148881,1901.428499 2392.348580,1912.469931 2393.269662,1921.484026 2385.468749,1928.661103 2365.502474,1940.717790 2355.234991,1941.051427 2348.396123,1939.686168 2342.935574,1934.945300 2330.821470,1918.447037 2324.434901,1913.431291 2310.114591,1906.966086 2305.062345,1912.132659 2299.821360,1921.389030"/>
    <poly id="139931671" type="amenity.university" color="237,199,199" fill="1" layer="-1.00" shape="1473.932503,1778.649943 1543.023515,1850.500202 1580.033707,1880.614258 1804.364398,2003.215358 1760.769428,2092.972408 1497.816420,2051.683338 1406.815301,2015.275622 1397.830605,2004.691784 1393.412754,1991.761812 1392.749714,1981.248831 1399.395612,1918.043164 1404.041149,1907.599252 1410.463694,1899.987904 1435.856785,1878.883873 1450.553366,1860.378625 1456.628224,1842.571030 1455.441796,1813.213822 1457.485813,1795.463123 1473.932503,1778.649943"/>
    <poly id="221919890" type="building.yes" color="255,230,230" fill="1" layer="-1.00" shape="988.214416,619.419486 1024.529650,543.456641 1118.979660,586.904755 1082.616357,665.526745 988.214416,619.419486"/>
    <poly id="221919890#1" type="shop.doityourself" color="237,199,255" fill="1" layer="-1.00" shape="988.214416,619.419486 1024.529650,543.456641 1118.979660,586.904755 1082.616357,665.526745 988.214416,619.419486"/>
    <poly id="221919891" type="building.yes" color="255,230,230" fill="1" layer="-1.00" shape="903.719473,786.941167 979.665690,625.255348 1091.476840,676.466781 1018.382545,835.831180 903.719473,786.941167"/>
    <poly id="221919891#1" type="shop.supermarket" color="237,199,255" fill="1" layer="-1.00" shape="903.719473,786.941167 979.665690,625.255348 1091.476840,676.466781 1018.382545,835.831180 903.719473,786.941167"/>
    <poly id="221919892" type="building.retail" color="255,230,230" fill="1" layer="-1.00" shape="717.946998,929.583860 738.702600,886.072460 698.736231,866.632223 703.863154,855.350976 701.470136,849.879878 694.913006,846.405772 697.527514,840.963799 699.922276,841.993359 708.375157,824.019587 706.163100,823.020681 708.713594,817.601760 714.903283,820.870593 719.538481,819.586903 726.554979,805.443537 767.126638,790.240218 811.571106,813.228006 815.822562,825.794833 824.165589,829.697852 834.235488,834.407232 844.100311,839.019814 869.912291,850.739950 879.419007,855.047437 887.717307,858.818153 900.799000,854.325101 928.238367,867.395671 942.451405,912.718078 937.246512,923.025801 938.950664,927.542977 936.560945,932.195414 941.223599,934.378117 932.757141,952.141748 928.194710,950.223456 926.039782,955.559298 921.167371,957.510938 916.833205,967.219341 890.860428,955.512573 869.064969,1000.545164 816.877161,975.916532 813.471867,969.374250 802.597765,969.228463 782.004373,959.583446 776.477771,952.395416 767.304120,952.701920 717.946998,929.583860"/>
    <poly id="221919892#1" type="shop.mall" color="237,199,255" fill="1" layer="-1.00" shape="717.946998,929.583860 738.702600,886.072460 698.736231,866.632223 703.863154,855.350976 701.470136,849.879878 694.913006,846.405772 697.527514,840.963799 699.922276,841.993359 708.375157,824.019587 706.163100,823.020681 708.713594,817.601760 714.903283,820.870593 719.538481,819.586903 726.554979,805.443537 767.126638,790.240218 811.571106,813.228006 815.822562,825.794833 824.165589,829.697852 834.235488,834.407232 844.100311,839.019814 869.912291,850.739950 879.419007,855.047437 887.717307,858.818153 900.799000,854.325101 928.238367,867.395671 942.451405,912.718078 937.246512,923.025801 938.950664,927.542977 936.560945,932.195414 941.223599,934.378117 932.757141,952.141748 928.194710,950.223456 926.039782,955.559298 921.167371,957.510938 916.833205,967.219341 890.860428,955.512573 869.064969,1000.545164 816.877161,975.916532 813.471867,969.374250 802.597765,969.228463 782.004373,959.583446 776.477771,952.395416 767.304120,952.701920 717.946998,929.583860"/>
    <poly id="221919893" type="amenity.parking" color="184,184,179" fill="1" layer="-1.00" shape="831.071560,774.253205 962.222474,500.673518 1025.991900,530.067128 901.475044,787.449087 1001.323579,832.760034 993.832703,848.228265 888.421358,800.769412 831.071560,774.253205"/>
    <poly id="226010610" type="building.commercial" color="255,230,230" fill="1" layer="-1.00" shape="2052.529602,1272.631685 2089.557422,1241.847578 2041.837541,1161.079334 2030.277466,1171.576989 2032.917804,1192.230001 2032.586319,1205.935966 2030.101894,1213.735539 2014.738540,1231.276073 2052.529602,1272.631685"/>
    <poly id="226011159" type="building.yes" color="255,230,230" fill="1" layer="-1.00" shape="3695.192916,1629.960317 3712.304122,1589.853190 3768.152535,1613.615356 3759.584290,1633.154080 3754.837828,1643.965655 3751.389679,1651.823528 3695.192916,1629.960317"/>
    <poly id="226011201" type="amenity.parking" color="184,184,179" fill="1" layer="-1.00" shape="3715.296242,1587.628602 3721.148696,1573.157186 3771.965006,1595.185438 3766.271017,1609.488473 3715.296242,1587.628602"/>
    <poly id="226125899" type="landuse.residential" color="235,235,227" fill="1" layer="-3.00" shape="550.641323,800.091123 150.551699,613.763825 -85.538507,503.288976 202.307727,-109.023244 395.867712,-532.440313 1087.133325,-210.160803 980.034408,6.172372 823.937295,311.594045 550.641323,800.091123"/>
    <poly id="231558859" type="building.yes" color="255,230,230" fill="1" layer="-1.00" shape="2807.968970,777.731501 2827.733520,731.141149 3065.901148,836.054242 3049.236925,877.450380 2807.968970,777.731501"/>
    <poly id="231558859#1" type="shop.mall" color="237,199,255" fill="1" layer="-1.00" shape="2807.968970,777.731501 2827.733520,731.141149 3065.901148,836.054242 3049.236925,877.450380 2807.968970,777.731501"/>
    <poly id="231652967" type="building.yes" color="255,230,230" fill="1" layer="-1.00" shape="3702.049134,1685.333276 3713.235556,1659.133696 3738.045825,1668.816121 3724.687891,1696.132076 3702.049134,1685.333276"/>
    <poly id="231652968" type="building.yes" color="255,230,230" fill="1" layer="-1.00" shape="3601.000507,1495.281632 3610.733770,1471.705703 3666.770947,1495.199530 3718.116108,1516.732982 3708.653000,1538.942740 3692.907009,1532.531880 3695.831389,1527.051805 3619.967405,1494.447127 3616.663349,1501.882026 3601.000507,1495.281632"/>
    <poly id="231653087" type="building.yes" color="255,230,230" fill="1" layer="-1.00" shape="1539.402853,1814.299053 1526.237542,1798.479895 1569.733722,1762.466285 1543.036418,1725.361555 1586.519744,1688.450890 1635.832952,1738.627224 1548.416418,1807.182722 1539.402853,1814.299053"/>
    <poly id="231653087#1" type="shop.mall" color="237,199,255" fill="1" layer="-1.00" shape="1539.402853,1814.299053 1526.237542,1798.479895 1569.733722,1762.466285 1543.036418,1725.361555 1586.519744,1688.450890 1635.832952,1738.627224 1548.416418,1807.182722 1539.402853,1814.299053"/>
    <poly id="231711092" type="building.yes" color="255,230,230" fill="1" layer="-1.00" shape="3455.206397,1204.694338 3472.716353,1158.700189 3523.306248,1177.708157 3505.796365,1223.702361 3455.206397,1204.694338"/>
    <poly id="231711095" type="landuse.grass" color="194,194,130" fill="1" layer="-3.00" shape="3470.636989,1151.208899 3495.647594,1092.049097 3558.941345,1118.463703 3533.930850,1177.623598 3470.636989,1151.208899"/>
    <poly id="231711220" type="amenity.parking" color="184,184,179" fill="1" layer="-1.00" shape="2818.412984,802.726529 2823.420361,788.378156 2907.003457,823.467184 2899.739940,836.739965 2818.412984,802.726529"/>
    <poly id="231711221" type="building.yes" color="255,230,230" fill="1" layer="-1.00" shape="3029.045799,810.880377 3052.101082,753.676232 3089.724755,770.288222 3068.591656,820.896877 3050.385617,812.593342 3046.709355,819.490690 3029.045799,810.880377"/>
    <poly id="231711221#1" type="shop.supermarket" color="237,199,255" fill="1" layer="-1.00" shape="3029.045799,810.880377 3052.101082,753.676232 3089.724755,770.288222 3068.591656,820.896877 3050.385617,812.593342 3046.709355,819.490690 3029.045799,810.880377"/>
    <poly id="231711222" type="amenity.parking" color="184,184,179" fill="1" layer="-1.00" shape="3049.193082,747.470474 3056.508340,730.298024 3064.166334,712.345361 3096.881331,725.327526 3104.493766,736.639124 3093.131840,764.823530 3049.193082,747.470474"/>
    <poly id="231712516" type="building.yes" color="255,230,230" fill="1" layer="-1.00" shape="1185.845234,1924.722178 1184.375525,1870.691411 1159.777031,1871.359538 1159.090501,1846.248571 1186.411445,1845.508813 1185.922886,1827.594530 1202.386226,1827.151875 1201.197785,1783.185331 1285.786726,1780.917632 1298.007218,1789.063389 1300.002012,1862.049142 1315.704408,1861.628221 1317.327134,1921.161721 1185.845234,1924.722178"/>
    <poly id="231712516#1" type="shop.supermarket" color="237,199,255" fill="1" layer="-1.00" shape="1185.845234,1924.722178 1184.375525,1870.691411 1159.777031,1871.359538 1159.090501,1846.248571 1186.411445,1845.508813 1185.922886,1827.594530 1202.386226,1827.151875 1201.197785,1783.185331 1285.786726,1780.917632 1298.007218,1789.063389 1300.002012,1862.049142 1315.704408,1861.628221 1317.327134,1921.161721 1185.845234,1924.722178"/>
    <poly id="231713006" type="building.yes" color="255,230,230" fill="1" layer="-1.00" shape="811.025919,845.289931 805.156053,857.866514 810.563177,860.382105 819.831548,864.515758 856.430437,880.846582 865.081868,884.568025 871.040244,887.397039 876.587767,875.533850 811.025919,845.289931"/>
    <poly id="231713008" type="building.yes" color="255,230,230" fill="1" layer="-1.00" shape="808.753977,864.383927 807.186804,868.061131 802.544683,865.811659 802.130313,863.037398 802.082912,860.435183 802.218995,857.918989 802.508121,855.611085 802.989578,853.256165 804.301455,848.962298 805.881531,845.439978 808.145174,841.730805 810.576999,839.304088 813.514630,836.249979 818.110856,832.962044 824.165589,829.697852 834.235488,834.407232 818.022349,868.517581 808.753977,864.383927"/>
    <poly id="231713010" type="building.yes" color="255,230,230" fill="1" layer="-1.00" shape="869.912291,850.739950 856.430437,880.846582 854.202442,885.563184 862.942755,889.504897 861.539610,892.648141 865.735832,894.449769 868.795339,892.435089 871.888514,889.766443 874.350625,887.206379 876.276436,884.631724 878.012672,881.539163 879.286552,878.353436 880.266366,875.603823 880.964085,873.378765 881.422012,870.115933 881.489085,867.268427 881.278015,863.704896 880.944762,861.361459 880.269984,858.369348 879.419007,855.047437 869.912291,850.739950"/>
    <poly id="231713012" type="landuse.residential" color="235,235,227" fill="1" layer="-3.00" shape="461.662906,1798.821349 454.035691,1801.609087 441.805841,1805.724258 432.574802,1808.833609 431.849102,1809.076417 430.611171,1809.492574 424.272054,1811.619764 423.418335,1811.908678 421.251955,1812.636951 418.759233,1811.509039 408.766751,1806.986615 407.655250,1806.481680 411.176926,1799.199466 403.831148,1796.079689 406.654765,1788.718689 400.835618,1785.887561 398.989538,1784.994223 391.702167,1781.452731 395.612261,1774.342272 388.933636,1771.390322 391.970129,1764.679816 385.241958,1762.016540 388.144636,1754.178160 378.235490,1746.431425 381.836721,1739.469302 375.325268,1736.204868 373.408317,1722.652598 377.262248,1713.837219 381.905976,1703.238558 368.191634,1658.994388 359.113241,1654.658465 350.378704,1651.137329 336.196687,1644.525076 334.440091,1643.132053 342.769829,1624.739386 326.757316,1617.576928 305.354528,1607.577286 305.885051,1606.417914 322.813147,1565.862962 432.900883,1615.607193 434.131077,1616.165836 433.985523,1620.299254 433.543111,1625.433695 433.528561,1626.685495 433.355536,1638.771909 435.891456,1651.351854 440.635966,1662.394374 441.704770,1663.675232 444.250710,1667.061906 447.178991,1670.188450 449.371603,1672.849076 451.573780,1673.903539 466.153129,1680.554442 470.595812,1681.577371 472.381587,1681.995281 475.607598,1682.658747 478.425933,1683.305797 483.438343,1684.431467 496.292917,1682.046408 507.614216,1676.614852 517.949033,1669.657602 519.316427,1667.013327 521.644195,1662.516907 522.646359,1660.586640 595.438607,1694.019547 589.976888,1705.914613 564.358906,1762.862910 530.392683,1836.897187 488.957536,1819.083013 501.493833,1791.792378 500.026416,1791.901640 498.428330,1791.868751 490.534072,1791.680800 485.118735,1793.163673 473.924755,1794.694639 461.662906,1798.821349"/>
    <poly id="231728576" type="amenity.restaurant" color="237,199,199" fill="1" layer="-1.00" shape="1527.590981,1771.313118 1513.010333,1753.974356 1523.893683,1744.871150 1538.687247,1762.860393 1527.590981,1771.313118"/>
    <poly id="231728576#1" type="building.yes" color="255,230,230" fill="1" layer="-1.00" shape="1527.590981,1771.313118 1513.010333,1753.974356 1523.893683,1744.871150 1538.687247,1762.860393 1527.590981,1771.313118"/>
    <poly id="231728578" type="amenity.fast_food" color="237,199,199" fill="1" layer="-1.00" shape="1501.604409,1764.037483 1508.893677,1772.252760 1517.925231,1764.892510 1510.961008,1756.916321 1501.604409,1764.037483"/>
    <poly id="231728578#1" type="building.yes" color="255,230,230" fill="1" layer="-1.00" shape="1501.604409,1764.037483 1508.893677,1772.252760 1517.925231,1764.892510 1510.961008,1756.916321 1501.604409,1764.037483"/>
    <poly id="234501333" type="amenity.public_building" color="237,199,199" fill="1" layer="-1.00" shape="1874.589349,540.652256 1867.061015,536.749163 1862.941593,530.527226 1860.542471,523.129029 1861.552099,513.400917 1866.037585,505.329371 1871.150493,500.682573 1880.299568,497.130601 1890.687047,499.265351 1898.223364,503.733209 1904.084957,511.082419 1905.353223,519.637462 1903.169750,528.241337 1896.966388,536.902080 1881.508968,541.695221 1874.589349,540.652256"/>
    <poly id="234501333#1" type="building.yes" color="255,230,230" fill="1" layer="-1.00" shape="1874.589349,540.652256 1867.061015,536.749163 1862.941593,530.527226 1860.542471,523.129029 1861.552099,513.400917 1866.037585,505.329371 1871.150493,500.682573 1880.299568,497.130601 1890.687047,499.265351 1898.223364,503.733209 1904.084957,511.082419 1905.353223,519.637462 1903.169750,528.241337 1896.966388,536.902080 1881.508968,541.695221 1874.589349,540.652256"/>
    <poly id="234501626" type="landuse.residential" color="235,235,227" fill="1" layer="-3.00" shape="2670.612808,731.121111 2696.287121,671.044818 2693.752101,669.962063 2646.810865,649.516309 2597.053180,627.792326 2592.024437,636.857551 2592.145323,645.384567 2596.961755,654.620353 2603.712982,663.441039 2608.534917,673.064416 2609.438354,681.580338 2608.798675,691.668815 2605.458564,704.132668 2670.612808,731.121111"/>
    <poly id="234501995" type="building.yes" color="255,230,230" fill="1" layer="-1.00" shape="2683.273061,511.686625 2694.005432,487.476731 2712.271124,495.480576 2701.538608,519.679407 2683.273061,511.686625"/>
    <poly id="234502059" type="landuse.residential" color="235,235,227" fill="1" layer="-3.00" shape="2683.618524,566.287791 2730.698574,585.945059 2693.752101,669.962063 2646.810865,649.516309 2683.618524,566.287791"/>
    <poly id="234502060" type="building.residential" color="255,230,230" fill="1" layer="-1.00" shape="2716.108985,671.583357 2709.263829,655.387223 2728.409866,646.830627 2731.410980,655.073123 2739.135692,652.393865 2745.410010,669.162981 2729.398036,675.681408 2726.721421,669.151133 2716.108985,671.583357"/>
    <poly id="234502061" type="building.residential" color="255,230,230" fill="1" layer="-1.00" shape="2738.338028,636.975913 2727.652895,613.114078 2743.359208,605.459120 2755.226444,631.021009 2738.338028,636.975913"/>
    <poly id="234502062" type="landuse.residential" color="235,235,227" fill="1" layer="-3.00" shape="2739.711845,689.236493 2776.102349,605.338038 2730.698574,585.945059 2693.752101,669.962063 2739.711845,689.236493"/>
    <poly id="234502063" type="building.residential" color="255,230,230" fill="1" layer="-1.00" shape="2694.738097,604.154971 2703.362607,584.028893 2719.278150,590.371406 2709.805606,611.938359 2694.738097,604.154971"/>
    <poly id="234502064" type="building.residential" color="255,230,230" fill="1" layer="-1.00" shape="2668.600634,648.952583 2675.883868,633.287132 2693.522768,640.181196 2687.060843,656.300212 2668.600634,648.952583"/>