<?xml version="1.0" encoding="UTF-8"?>

<!-- generated on 2022-06-06 15:26:27 by Eclipse SUMO duarouter Version 1.13.0
<configuration xmlns:xsi="http://www.w3.org/2001/XMLSchema-instance" xsi:noNamespaceSchemaLocation="http://sumo.dlr.de/xsd/duarouterConfiguration.xsd">

    <input>
        <net-file value="/home/kenniston/2022-06-06-15-26-09/osm.net.xml"/>
        <route-files value="/home/kenniston/2022-06-06-15-26-09/osm.passenger.trips.xml"/>
    </input>

    <output>
        <output-file value="/home/kenniston/2022-06-06-15-26-09/osm.passenger.trips.xml.tmp"/>
        <write-trips value="true"/>
    </output>

    <time>
        <begin value="0"/>
        <end value="3600"/>
    </time>

    <report>
        <no-warnings value="true"/>
        <ignore-errors value="true"/>
        <no-step-log value="true"/>
    </report>

</configuration>
-->

<routes xmlns:xsi="http://www.w3.org/2001/XMLSchema-instance" xsi:noNamespaceSchemaLocation="http://sumo.dlr.de/xsd/routes_file.xsd">
    <vType id="flow_veh_passenger" vClass="passenger" accel="2.6" decel="4.5" sigma="0.5" length="2.5" minGap="2.5" maxSpeed="14" color="1,1,0" />
    <flow id="flow1" type="flow_veh_passenger" begin="500" end="520" from="145779407" to="132503186#23" number="20"/>
</routes>
