<?xml version="1.0" encoding="UTF-8"?>

<!-- generated on 2022-05-29 22:56:54 by Eclipse SUMO netedit Version 1.13.0
-->

<routes xmlns:xsi="http://www.w3.org/2001/XMLSchema-instance" xsi:noNamespaceSchemaLocation="http://sumo.dlr.de/xsd/routes_file.xsd">
    <!-- Routes -->
    <route id="r_0" edges="edge1 edge2 edge3 edge4 edge5 edge6" color="0,0,0,0"/>
    <!-- Vehicles, persons and containers (sorted by depart) -->
    <trip id="t_0" depart="0.00" color="yellow" from="edge1" to="edge1"/>
    <trip id="t_1" depart="0.00" color="red" from="edge1" to="edge1"/>
    <trip id="t_2" depart="0.00" color="blue" from="edge1" to="edge1"/>
    <trip id="t_3" depart="0.00" color="green" from="edge1" to="edge1"/>
    <trip id="t_4" depart="0.00" color="magenta" from="edge1" to="edge1"/>
</routes>
