<?xml version="1.0" encoding="UTF-8"?>

<!-- generated on 2022-05-29 22:58:46 by Eclipse SUMO netedit Version 1.13.0
-->

<additionals>
    <rerouter id="rerouter_0" edges="edge1">
        <interval end="1e9">
           <destProbReroute id="edge2"/>
        </interval>
    </rerouter>
    <rerouter id="rerouter_1" edges="edge2">
        <interval end="1e9">
           <destProbReroute id="edge1"/>
        </interval>
    </rerouter>
</additionals>
