<?xml version="1.0" encoding="UTF-8"?>

<!-- generated on 2022-05-29 20:10:30 by Eclipse SUMO netedit Version 1.13.0
<configuration xmlns:xsi="http://www.w3.org/2001/XMLSchema-instance" xsi:noNamespaceSchemaLocation="http://sumo.dlr.de/xsd/netconvertConfiguration.xsd">

    <output>
        <output-file value="/home/kenniston/mestrado-ita/materiais/SBSeg/projetos/omnetpp6-workspace/fmdvn/simulations/basic/basic.net.xml"/>
    </output>

    <processing>
        <offset.disable-normalization value="true"/>
    </processing>

    <junctions>
        <no-turnarounds value="true"/>
    </junctions>

    <report>
        <aggregate-warnings value="5"/>
    </report>

</configuration>
-->

<net version="1.9" junctionCornerDetail="5" limitTurnSpeed="5.50" xmlns:xsi="http://www.w3.org/2001/XMLSchema-instance" xsi:noNamespaceSchemaLocation="http://sumo.dlr.de/xsd/net_file.xsd">

    <location netOffset="0.00,0.00" convBoundary="-2.03,7.81,69.59,88.59" origBoundary="10000000000.00,10000000000.00,-10000000000.00,-10000000000.00" projParameter="!"/>

    <edge id=":J10_0" function="internal">
        <lane id=":J10_0_0" index="0" speed="4.05" length="1.59" shape="0.60,31.04 0.28,31.30 0.05,31.61 -0.09,31.97 -0.14,32.38"/>
    </edge>
    <edge id=":J11_0" function="internal">
        <lane id=":J11_0_0" index="0" speed="4.02" length="1.66" shape="-0.41,65.75 -0.37,66.18 -0.22,66.56 0.02,66.87 0.36,67.14"/>
    </edge>
    <edge id=":J6_0" function="internal">
        <lane id=":J6_0_0" index="0" speed="4.02" length="1.69" shape="32.19,86.26 32.59,86.44 32.99,86.51 33.39,86.45 33.80,86.28"/>
    </edge>
    <edge id=":J7_0" function="internal">
        <lane id=":J7_0_0" index="0" speed="4.02" length="1.70" shape="67.17,67.54 67.53,67.28 67.79,66.96 67.94,66.59 67.99,66.15"/>
    </edge>
    <edge id=":J8_0" function="internal">
        <lane id=":J8_0_0" index="0" speed="4.03" length="1.64" shape="67.99,31.38 67.94,30.96 67.80,30.59 67.56,30.27 67.22,30.01"/>
    </edge>
    <edge id=":J9_0" function="internal">
        <lane id=":J9_0_0" index="0" speed="3.99" length="1.80" shape="34.74,10.22 34.31,10.02 33.88,9.96 33.46,10.03 33.04,10.24"/>
    </edge>

    <edge id="edge1" from="J6" to="J7" priority="-1">
        <lane id="edge1_0" index="0" speed="13.89" length="38.28" shape="33.80,86.28 67.17,67.54"/>
    </edge>
    <edge id="edge2" from="J7" to="J8" priority="-1">
        <lane id="edge2_0" index="0" speed="13.89" length="34.77" shape="67.99,66.15 67.99,31.38"/>
    </edge>
    <edge id="edge3" from="J8" to="J9" priority="-1">
        <lane id="edge3_0" index="0" speed="13.89" length="38.04" shape="67.22,30.01 34.74,10.22"/>
    </edge>
    <edge id="edge4" from="J9" to="J10" priority="-1">
        <lane id="edge4_0" index="0" speed="13.89" length="38.54" shape="33.04,10.24 0.60,31.04"/>
    </edge>
    <edge id="edge5" from="J10" to="J11" priority="-1">
        <lane id="edge5_0" index="0" speed="13.89" length="33.38" shape="-0.14,32.38 -0.41,65.75"/>
    </edge>
    <edge id="edge6" from="J11" to="J6" priority="-1">
        <lane id="edge6_0" index="0" speed="13.89" length="37.13" shape="0.36,67.14 32.19,86.26"/>
    </edge>

    <junction id="J10" type="priority" x="-1.73" y="30.63" incLanes="edge4_0" intLanes=":J10_0_0" shape="1.46,32.39 -0.27,29.70 -1.08,30.41 -1.37,30.83 -1.57,31.30 -1.70,31.81 -1.74,32.36">
        <request index="0" response="0" foes="0" cont="0"/>
    </junction>
    <junction id="J11" type="priority" x="-2.03" y="67.57" incLanes="edge5_0" intLanes=":J11_0_0" shape="-0.46,68.51 1.19,65.77 -2.01,65.74 -1.85,66.86 -1.63,67.35 -1.33,67.78 -0.94,68.17">
        <request index="0" response="0" foes="0" cont="0"/>
    </junction>
    <junction id="J6" type="priority" x="32.96" y="88.59" incLanes="edge6_0" intLanes=":J6_0_0" shape="34.58,87.68 33.01,84.89 31.37,87.63 32.43,88.06 32.97,88.12 33.50,88.08 34.04,87.93">
        <request index="0" response="0" foes="0" cont="0"/>
    </junction>
    <junction id="J7" type="priority" x="69.59" y="68.02" incLanes="edge1_0" intLanes=":J7_0_0" shape="69.59,66.15 66.39,66.15 67.96,68.94 68.86,68.22 69.18,67.78 69.41,67.29 69.54,66.74">
        <request index="0" response="0" foes="0" cont="0"/>
    </junction>
    <junction id="J8" type="priority" x="69.59" y="29.58" incLanes="edge2_0" intLanes=":J8_0_0" shape="66.39,31.38 69.59,31.38 69.42,30.27 69.21,29.80 68.91,29.36 68.52,28.98 68.06,28.64">
        <request index="0" response="0" foes="0" cont="0"/>
    </junction>
    <junction id="J9" type="priority" x="33.86" y="7.81" incLanes="edge3_0" intLanes=":J9_0_0" shape="33.90,11.58 35.57,8.85 34.43,8.39 33.87,8.34 33.30,8.41 32.74,8.59 32.18,8.89">
        <request index="0" response="0" foes="0" cont="0"/>
    </junction>

    <connection from="edge1" to="edge2" fromLane="0" toLane="0" via=":J7_0_0" dir="r" state="M"/>
    <connection from="edge2" to="edge3" fromLane="0" toLane="0" via=":J8_0_0" dir="r" state="M"/>
    <connection from="edge3" to="edge4" fromLane="0" toLane="0" via=":J9_0_0" dir="r" state="M"/>
    <connection from="edge4" to="edge5" fromLane="0" toLane="0" via=":J10_0_0" dir="r" state="M"/>
    <connection from="edge5" to="edge6" fromLane="0" toLane="0" via=":J11_0_0" dir="r" state="M"/>
    <connection from="edge6" to="edge1" fromLane="0" toLane="0" via=":J6_0_0" dir="r" state="M"/>

    <connection from=":J10_0" to="edge5" fromLane="0" toLane="0" dir="r" state="M"/>
    <connection from=":J11_0" to="edge6" fromLane="0" toLane="0" dir="r" state="M"/>
    <connection from=":J6_0" to="edge1" fromLane="0" toLane="0" dir="r" state="M"/>
    <connection from=":J7_0" to="edge2" fromLane="0" toLane="0" dir="r" state="M"/>
    <connection from=":J8_0" to="edge3" fromLane="0" toLane="0" dir="r" state="M"/>
    <connection from=":J9_0" to="edge4" fromLane="0" toLane="0" dir="r" state="M"/>

</net>
